1

                    Execution started at 20240325.222815         



                    ---------------------------------------
                                     SWAN
                    SIMULATION OF WAVES IN NEAR SHORE AREAS
                             VERSION NUMBER 41.45A              
                    ---------------------------------------


    
 $*************************HEADING************************
    
 $
    
 PROJ 'F32har01' 'F32'
    
 $
    
 $ Field case: the Haringvliet test
    
 $ Time of simulation: 21:00 UTC on October 14, 1982
    
 $
    
 $********************MODEL INPUT*************************
    
 $
    
 SET LEVEL 0.30
    
 $
    
 CGRID UNSTRUCTURED CIRCLE 36 0.0521 1. 31
 Resolution in sigma-space: df/f =  0.1000
    
 READ UNSTRUCTURED triangle 'f32hari'


 The unstructured grid contains solely triangles generated by Triangle

 Number of vertices          =    5961

 Number of cells             =   11489
    Number of internal cells =   11078
    Number of boundary cells =     411

 Number of faces             =   17449
    Number of internal faces =   17018
    Number of boundary faces =     431


 The minimum gridsize =    26.35800
 The maximum gridsize =   706.46484
    
 $
    
 INPGRID BOTTOM 0. 0. 0. 87 116 250. 250. EXC -99.
    
 READINP BOTTOM 1. 'f31hari.bot' 3 0 FREE
    
 $
    
 WIND 12. 8.8
    
 $
    
 BOU SIDE 2 CCW CON FILE 'f31har01.bnd' 1
    
 $
    
 GEN3 DRAG WU
    
 BREAKING
    
 FRICTION
    
 TRIADS
    
 $
    
 $*************************************************************
    
 $
    
 POINTS 'BUOYS' FILE   'f31hari.loc'
    
 TABLE  'BUOYS' HEAD   'f32har01.tab' DIST DEP HS RTP TM01 TM02 DSPR DIR FORCE
    
 TABLE  'BUOYS' NOHEAD 'f32har01.tbl' HS RTP TPS TM01 TM02
    
 SPEC   'BUOYS' SPEC1D 'f32har01.spc'
    
 $
    
 BLOCK 'COMPGRID' NOHEAD 'f32har01.mat' LAY 3 XP YP BOTLEV HS TM01 DSPR
    
 $
    
 BLOCK 'COMPGRID' NOHEAD 'f32har01.vtk' BOTLEV HS TM01 DSPR
    
 $
    
 TEST 1,0
    
 COMPUTE

----------------------------------------------------------------
                  COMPUTATIONAL PART OF SWAN
----------------------------------------------------------------

 Gridresolution       : MSC              32 MDC             36
                      : MTC               1
                      : NSTATC            0 ITERMX          50
 Propagation flags    : ITFRE             1 IREFR            1
 Source term flags    : IBOT              1 ISURF            1
                      : IWCAP             7 IWIND            5
                      : ITRIAD            5 IQUAD            2
                      : IBRAG             0 IQCM             0
                      : IVEG              0 ITURBV           0
                      : IMUD              0 IICE             0
 Spectral bin         : df/f     0.1000E+00 DDIR    0.1000E+02
 Physical constants   : GRAV     0.9810E+01 RHO     0.1025E+04
 Wind input           : WSPEED   0.1200E+02 DIR     0.8800E+01
                      : ICEWIND  0.00
 Tail parameters      : E(f)     0.4000E+01 E(k)    0.2500E+01
                      : A(f)     0.5000E+01 A(k)    0.3000E+01
 Accuracy parameters  : DREL     0.1000E-01 NPNTS   0.9950E+02
                      : DHABS    0.5000E-02 CURVAT  0.5000E-02
                      : GRWMX    0.1000E+00
 Drying/flooding      : LEVEL    0.3000E+00 DEPMIN  0.5000E-01
 The Cartesian convention for wind and wave directions is used
 Scheme for geographic propagation is BSBT  
 Scheme spectral space: CSS      0.5000E+00 CDD     0.5000E+00
 Current is off
 Quadruplets          : IQUAD             2
                      : LAMBDA   0.2500E+00 CNL4    0.3000E+08
                      : CSH1     0.5500E+01 CSH2    0.8330E+00
                      : CSH3    -0.1250E+01
 Maximum Ursell nr for Snl4 :    0.1000E+02
 Triads               : ITRIAD            5 TRFAC   0.4400E+01
                      : POWER    0.1333E+01 URCRI   0.6300E+00
 Minimum Ursell nr for Snl3 :    0.1000E+00
 DCTA (Booij et al, 2009) is employed
 Biphase based on Eldeberky (1996)
 Bragg scattering is off
 QC scattering is off
 Surfbeat (IEM) is off
 JONSWAP (`73)        : GAMMA    0.3800E-01
 Vegetation is off
 Turbulence is off
 Fluid mud is off
 Dissipation by sea ice is off
 W-cap Alves-Banner   : CDS2     0.2360E-04 BR      0.1750E-02
 Wind drag is Wu
 Yan/Westhuysen wind input
 Battjes&Janssen (`78): ALPHA    0.1000E+01 GAMMA   0.7300E+00
 Set-up is off
 Diffraction is off
 Janssen (`89,`90)    : ALPHA    0.1000E-01 KAPPA   0.4100E+00
 Janssen (`89,`90)    : RHOA     0.1280E+01 RHOW    0.1025E+04
 
 1st and 2nd gen. wind: CF10     0.1880E+03 CF20    0.5900E+00
                      : CF30     0.1200E+00 CF40    0.2500E+03
                      : CF50     0.2300E-02 CF60   -0.2230E+00
                      : CF70     0.0000E+00 CF80   -0.5600E+00
                      : RHOAW    0.1249E-02 EDMLPM  0.3600E-02
                      : CDRAG    0.1230E-02 UMIN    0.1000E+01
                      : LIM_PM   0.1300E+00
 
 Number of active points =   5798 (fillings-degree:  97.27 %)


 Settings of 2nd generation mode as first guess are used:
 ITER     1    GRWMX   0.1000E+23    ALFA     0.0000E+00
 IWIND    2    IWCAP    0            IQUAD     0
 ISURF    1    IBOT     1            ITRIAD    5
 IVEG     0    ITURBV   0            IMUD      0
 IICE     0    IBRAG    0
 iteration    1
       not possible to compute accuracy, first iteration



 User-defined settings of 3rd generation mode is re-used:
 ITER     2    GRWMX   0.1000E+00    ALFA     0.0000E+00
 IWIND    5    IWCAP    7            IQUAD     2
 ISURF    1    IBOT     1            ITRIAD    5
 IVEG     0    ITURBV   0            IMUD      0
 IICE     0    IBRAG    0
 iteration    2
 accuracy OK in  11.97 % of wet grid points ( 99.50 % required)

 iteration    3
 accuracy OK in  14.30 % of wet grid points ( 99.50 % required)

 iteration    4
 accuracy OK in  37.05 % of wet grid points ( 99.50 % required)

 iteration    5
 accuracy OK in  52.80 % of wet grid points ( 99.50 % required)

 iteration    6
 accuracy OK in  71.93 % of wet grid points ( 99.50 % required)

 iteration    7
 accuracy OK in  80.14 % of wet grid points ( 99.50 % required)

 iteration    8
 accuracy OK in  87.41 % of wet grid points ( 99.50 % required)

 iteration    9
 accuracy OK in  92.88 % of wet grid points ( 99.50 % required)

 iteration   10
 accuracy OK in  95.83 % of wet grid points ( 99.50 % required)

 iteration   11
 accuracy OK in  97.47 % of wet grid points ( 99.50 % required)

 iteration   12
 accuracy OK in  98.37 % of wet grid points ( 99.50 % required)

 iteration   13
 accuracy OK in  98.87 % of wet grid points ( 99.50 % required)

 iteration   14
 accuracy OK in  99.42 % of wet grid points ( 99.50 % required)

 iteration   15
 accuracy OK in  99.61 % of wet grid points ( 99.50 % required)

    
 STOP
